units(length='cm', time='s', quantity='mol', act_energy='kcal/mol')

ideal_gas(name='gas',
          elements="H D T C Ci O Oi N Ne Ar He Si S Cl",
          species="""Ar          Ne          NC(1)       O2(2)
                     H(3)        O(4)        OH(5)       H2(6)
                     H2O(7)      HO2(9)      CO(11)      CO2(12)
                     HCO(13)     CH3(17)     CH2O(18)    N2(24)
                     N(37)       NO(38)      N2O(39)     NH3(40)
                     NH2(41)     NH(T)(45)   H2CN(56)    HCN(57)
                     HCNH(58)    CH2NH2(59)  CH3NH(60)   H2CNH(61)
                     HNCO(64)    NCO(66)     HNC(77)     CH3O2(87)
                     H2NO2(88)   CH5N2(102)  CH4NO(109)  CH4NO(119)
                     CHO2(142)   CHO2(145)   CH3N2(155)  HN2O(170)
                     CH2NO(177)""",
          reactions='all',
          transport='Mix',
          initial_state=state(temperature=300.0, pressure=OneAtm))

#-------------------------------------------------------------------------------
# Element data
#-------------------------------------------------------------------------------

element(symbol=u'Ci', atomic_mass=13.003)
element(symbol=u'D', atomic_mass=2.014)
element(symbol=u'Oi', atomic_mass=18.0)
element(symbol=u'T', atomic_mass=3.016)
#-------------------------------------------------------------------------------
# Species data
#-------------------------------------------------------------------------------

species(name=u'Ar',
        atoms='Ar:1',
        thermo=(NASA([100.00, 3142.77],
                     [ 2.50000000E+00,  9.62838494E-15, -1.50167895E-17,
                       7.73923008E-21, -1.23210440E-24, -7.45000000E+02,
                       4.36630363E+00]),
                NASA([3142.77, 5000.00],
                     [ 2.50000000E+00,  3.32026413E-12, -1.37161245E-15,
                       2.48094222E-19, -1.65799619E-23, -7.44999998E+02,
                       4.36630365E+00])),
        transport=gas_transport(geom='atom',
                                diam=3.33,
                                well_depth=136.501))

species(name=u'Ne',
        atoms='Ne:1',
        thermo=(NASA([200.00, 1000.00],
                     [ 2.50000000E+00,  0.00000000E+00,  0.00000000E+00,
                       0.00000000E+00,  0.00000000E+00, -7.45375000E+02,
                       3.35532000E+00]),
                NASA([1000.00, 6000.00],
                     [ 2.50000000E+00,  0.00000000E+00,  0.00000000E+00,
                       0.00000000E+00,  0.00000000E+00, -7.45375000E+02,
                       3.35532000E+00])),
        transport=gas_transport(geom='atom',
                                diam=3.758,
                                well_depth=148.6))

species(name=u'NC(1)',
        atoms='H:5 C:1 N:1',
        thermo=(NASA([100.00, 1018.24],
                     [ 3.74058703E+00,  2.80048489E-03,  2.30162746E-05,
                      -2.52937045E-08,  8.26123435E-12, -3.90211902E+03,
                       6.19635319E+00]),
                NASA([1018.24, 5000.00],
                     [ 2.85992796E+00,  1.41885007E-02, -5.43933967E-06,
                       9.83728455E-10, -6.78955917E-14, -4.13379558E+03,
                       8.44265975E+00])),
        transport=gas_transport(geom='nonlinear',
                                diam=4.443,
                                well_depth=110.7))

species(name=u'O2(2)',
        atoms='O:2',
        thermo=(NASA([100.00, 1087.71],
                     [ 3.53763683E+00, -1.22827482E-03,  5.36758530E-06,
                      -4.93127998E-09,  1.45955071E-12, -1.03799025E+03,
                       4.67179819E+00]),
                NASA([1087.71, 5000.00],
                     [ 3.16427292E+00,  1.69453609E-03, -8.00335066E-07,
                       1.59029907E-10, -1.14890901E-14, -1.04844570E+03,
                       6.08302645E+00])),
        transport=gas_transport(geom='linear',
                                diam=3.458,
                                well_depth=107.4,
                                polar=1.6,
                                rot_relax=3.8))

species(name=u'H(3)',
        atoms='H:1',
        thermo=(NASA([100.00, 3142.77],
                     [ 2.50000000E+00,  9.62838494E-15, -1.50167895E-17,
                       7.73923008E-21, -1.23210440E-24,  2.54727081E+04,
                      -4.59566246E-01]),
                NASA([3142.77, 5000.00],
                     [ 2.50000000E+00,  3.32026413E-12, -1.37161245E-15,
                       2.48094222E-19, -1.65799619E-23,  2.54727081E+04,
                      -4.59566228E-01])),
        transport=gas_transport(geom='atom',
                                diam=2.05,
                                well_depth=145.0))

species(name=u'O(4)',
        atoms='O:1',
        thermo=(NASA([100.00, 3142.77],
                     [ 2.50000000E+00,  9.62838494E-15, -1.50167895E-17,
                       7.73923008E-21, -1.23210440E-24,  2.92267216E+04,
                       5.11106770E+00]),
                NASA([3142.77, 5000.00],
                     [ 2.50000000E+00,  3.32026413E-12, -1.37161245E-15,
                       2.48094222E-19, -1.65799619E-23,  2.92267216E+04,
                       5.11106772E+00])),
        transport=gas_transport(geom='atom',
                                diam=2.75,
                                well_depth=80.0))

species(name=u'OH(5)',
        atoms='H:1 O:1',
        thermo=(NASA([100.00, 1005.25],
                     [ 3.48579717E+00,  1.33395121E-03, -4.70037324E-06,
                       5.64371445E-09, -2.06314356E-12,  3.41195697E+03,
                       1.99787197E+00]),
                NASA([1005.25, 5000.00],
                     [ 2.88224685E+00,  1.03869752E-03, -2.35657445E-07,
                       1.40242608E-11,  6.34472029E-16,  3.66956248E+03,
                       5.59056457E+00])),
        transport=gas_transport(geom='linear',
                                diam=2.75,
                                well_depth=80.0))

species(name=u'H2(6)',
        atoms='H:2',
        thermo=(NASA([100.00, 1962.85],
                     [ 3.42253738E+00,  2.86649672E-04, -4.14670588E-07,
                       4.27547901E-10, -9.38118658E-14, -1.02978490E+03,
                      -3.86364741E+00]),
                NASA([1962.85, 5000.00],
                     [ 2.74218737E+00,  5.79539769E-04,  1.97202629E-07,
                      -6.41094285E-11,  4.96002960E-15, -5.52037661E+02,
                       4.14098736E-01])),
        transport=gas_transport(geom='linear',
                                diam=2.92,
                                well_depth=38.0,
                                polar=0.79,
                                rot_relax=280.0))

species(name=u'H2O(7)',
        atoms='H:2 O:1',
        thermo=(NASA([100.00, 1281.44],
                     [ 3.99882001E+00, -5.54831176E-04,  2.76774269E-06,
                      -1.55665006E-09,  3.02330482E-13, -3.02745569E+04,
                      -3.08942524E-02]),
                NASA([1281.44, 5000.00],
                     [ 3.19560365E+00,  1.95240016E-03, -1.67118288E-07,
                      -2.97938318E-11,  4.45139041E-15, -3.00687022E+04,
                       4.04334530E+00])),
        transport=gas_transport(geom='nonlinear',
                                diam=2.605,
                                well_depth=572.402,
                                dipole=1.844,
                                rot_relax=4.0))

species(name=u'HO2(9)',
        atoms='H:1 O:2',
        thermo=(NASA([100.00, 923.90],
                     [ 4.02957039E+00, -2.63998092E-03,  1.52235114E-05,
                      -1.71678106E-08,  6.26769071E-12,  3.22676834E+02,
                       4.84424276E+00]),
                NASA([923.90, 5000.00],
                     [ 4.15130166E+00,  1.91151403E-03, -4.11305794E-07,
                       6.35032635E-11, -4.86448211E-15,  8.34332946E+01,
                       3.09358019E+00])),
        transport=gas_transport(geom='nonlinear',
                                diam=3.458,
                                well_depth=107.4,
                                rot_relax=1.0))

species(name=u'CO(11)',
        atoms='C:1 O:1',
        thermo=(NASA([100.00, 1669.93],
                     [ 3.59709670E+00, -1.02423816E-03,  2.83336438E-06,
                      -1.75825269E-09,  3.42587185E-13, -1.43431899E+04,
                       3.45822161E+00]),
                NASA([1669.93, 5000.00],
                     [ 2.92795489E+00,  1.81930818E-03, -8.35309320E-07,
                       1.51269346E-10, -9.88873523E-15, -1.42927077E+04,
                       6.51157761E+00])),
        transport=gas_transport(geom='linear',
                                diam=3.65,
                                well_depth=98.1,
                                polar=1.95,
                                rot_relax=1.8))

species(name=u'CO2(12)',
        atoms='C:1 O:2',
        thermo=(NASA([100.00, 988.20],
                     [ 3.27788971E+00,  2.75797848E-03,  7.12732258E-06,
                      -1.07847328E-08,  4.14196383E-12, -4.84756026E+04,
                       5.97860391E+00]),
                NASA([988.20, 5000.00],
                     [ 4.55076238E+00,  2.90719784E-03, -1.14638191E-06,
                       2.25786113E-10, -1.69516611E-14, -4.89860301E+04,
                      -1.45690022E+00])),
        transport=gas_transport(geom='linear',
                                diam=3.763,
                                well_depth=244.001,
                                polar=2.65,
                                rot_relax=2.1))

species(name=u'HCO(13)',
        atoms='H:1 C:1 O:1',
        thermo=(NASA([100.00, 1112.10],
                     [ 4.05936411E+00, -1.73846496E-03,  9.14981187E-06,
                      -8.01131703E-09,  2.25737334E-12,  3.84377617E+03,
                       3.32449688E+00]),
                NASA([1112.10, 5000.00],
                     [ 3.05136161E+00,  4.11706478E-03, -1.75586456E-06,
                       3.29302873E-10, -2.29174073E-14,  3.93007934E+03,
                       7.67464430E+00])),
        transport=gas_transport(geom='nonlinear',
                                diam=3.59,
                                well_depth=498.002))

species(name=u'CH3(17)',
        atoms='H:3 C:1',
        thermo=(NASA([100.00, 697.62],
                     [ 3.96043199E+00,  5.92927747E-04,  8.78579844E-06,
                      -9.88036765E-09,  3.63237530E-12,  1.64218817E+04,
                       3.39862070E-01]),
                NASA([697.62, 5000.00],
                     [ 3.09511282E+00,  5.55429673E-03, -1.88158721E-06,
                       3.13334661E-10, -2.05194867E-14,  1.65426189E+04,
                       4.20297371E+00])),
        transport=gas_transport(geom='nonlinear',
                                diam=3.8,
                                well_depth=144.001))

species(name=u'CH2O(18)',
        atoms='H:2 C:1 O:1',
        thermo=(NASA([100.00, 1070.44],
                     [ 4.12927640E+00, -4.08399435E-03,  2.03228702E-05,
                      -1.83523449E-08,  5.37972302E-12, -1.44294639E+04,
                       3.22419047E+00]),
                NASA([1070.44, 5000.00],
                     [ 2.21173329E+00,  7.94264210E-03, -3.34192222E-06,
                       6.28469466E-10, -4.40429859E-14, -1.42974495E+04,
                       1.13048483E+01])),
        transport=gas_transport(geom='nonlinear',
                                diam=3.59,
                                well_depth=498.002,
                                rot_relax=2.0))

species(name=u'N2(24)',
        atoms='N:2',
        thermo=(NASA([100.00, 1817.03],
                     [ 3.61262592E+00, -1.00893095E-03,  2.49898687E-06,
                      -1.43375781E-09,  2.58636137E-13, -1.05110289E+03,
                       2.65270339E+00]),
                NASA([1817.03, 5000.00],
                     [ 2.97589517E+00,  1.64141913E-03, -7.19726100E-07,
                       1.25378529E-10, -7.91532775E-15, -1.02583982E+03,
                       5.53760697E+00])),
        transport=gas_transport(geom='linear',
                                diam=3.621,
                                well_depth=97.53,
                                polar=1.76,
                                rot_relax=4.0))

species(name=u'N(37)',
        atoms='N:1',
        thermo=(NASA([100.00, 3142.77],
                     [ 2.50000000E+00,  9.62838494E-15, -1.50167895E-17,
                       7.73923008E-21, -1.23210440E-24,  5.60986144E+04,
                       4.19198858E+00]),
                NASA([3142.77, 5000.00],
                     [ 2.50000000E+00,  3.32026413E-12, -1.37161245E-15,
                       2.48094222E-19, -1.65799619E-23,  5.60986144E+04,
                       4.19198860E+00])),
        transport=gas_transport(geom='atom',
                                diam=3.298,
                                well_depth=71.4))

species(name=u'NO(38)',
        atoms='O:1 N:1',
        thermo=(NASA([100.00, 1407.00],
                     [ 3.55718261E+00, -8.90582584E-04,  2.98556412E-06,
                      -2.08690850E-09,  4.65960512E-13,  9.95239679E+03,
                       4.55251078E+00]),
                NASA([1407.00, 5000.00],
                     [ 2.93795989E+00,  1.75427245E-03, -7.77020454E-07,
                       1.42655227E-10, -9.57866258E-15,  1.00391011E+04,
                       7.44023706E+00])),
        transport=gas_transport(geom='linear',
                                diam=3.621,
                                well_depth=97.53,
                                polar=1.76,
                                rot_relax=4.0))

species(name=u'N2O(39)',
        atoms='O:1 N:2',
        thermo=(NASA([100.00, 1026.61],
                     [ 3.22183139E+00,  4.41472146E-03,  2.54399756E-06,
                      -6.06061070E-09,  2.45086929E-12,  8.76576984E+03,
                       6.72929504E+00]),
                NASA([1026.61, 5000.00],
                     [ 4.61743834E+00,  3.00863198E-03, -1.29223162E-06,
                       2.55912387E-10, -1.88712305E-14,  8.26676755E+03,
                      -1.07508517E+00])),
        transport=gas_transport(geom='linear',
                                diam=3.828,
                                well_depth=232.401,
                                rot_relax=1.0))

species(name=u'NH3(40)',
        atoms='H:3 N:1',
        thermo=(NASA([100.00, 993.28],
                     [ 4.09069208E+00, -2.07168940E-03,  1.14754022E-05,
                      -9.47524902E-09,  2.61232786E-12, -6.69036421E+03,
                       2.22375202E-02]),
                NASA([993.28, 5000.00],
                     [ 2.12300331E+00,  6.45661906E-03, -2.31620170E-06,
                       3.93874066E-10, -2.58111662E-14, -6.32928133E+03,
                       9.35187060E+00])),
        transport=gas_transport(geom='nonlinear',
                                diam=2.92,
                                well_depth=481.001,
                                dipole=1.47,
                                rot_relax=10.0))

species(name=u'NH2(41)',
        atoms='H:2 N:1',
        thermo=(NASA([100.00, 1522.05],
                     [ 4.08973498E+00, -1.15510628E-03,  4.13794246E-06,
                      -2.48321608E-09,  4.84270046E-13,  2.11773523E+04,
                       2.89569800E-01]),
                NASA([1522.05, 5000.00],
                     [ 2.68016328E+00,  3.36840199E-03, -1.12727253E-06,
                       1.76553854E-10, -1.06784588E-14,  2.15115616E+04,
                       7.37036079E+00])),
        transport=gas_transport(geom='nonlinear',
                                diam=2.65,
                                well_depth=80.0,
                                polar=2.26,
                                rot_relax=4.0))

species(name=u'NH(T)(45)',
        atoms='H:1 N:1',
        thermo=(NASA([100.00, 1032.83],
                     [ 3.52478405E+00, -1.21395949E-05, -6.40588081E-07,
                       1.50177626E-09, -6.55583099E-13,  4.21056874E+04,
                       1.71085032E+00]),
                NASA([1032.83, 5000.00],
                     [ 2.91397426E+00,  1.04070268E-03, -2.63133459E-07,
                       2.75222552E-11, -8.58977917E-16,  4.23018769E+04,
                       5.01634259E+00])),
        transport=gas_transport(geom='linear',
                                diam=2.65,
                                well_depth=80.0,
                                rot_relax=4.0))

species(name=u'H2CN(56)',
        atoms='H:2 C:1 N:1',
        thermo=(NASA([100.00, 1019.56],
                     [ 4.01860997E+00, -2.56297659E-03,  1.98606383E-05,
                      -2.02142293E-08,  6.51115273E-12,  2.76978476E+04,
                       4.09533842E+00]),
                NASA([1019.56, 5000.00],
                     [ 3.27303356E+00,  6.57110549E-03, -2.71238225E-06,
                       5.18708164E-10, -3.72261026E-14,  2.75271644E+04,
                       6.12414135E+00])),
        transport=gas_transport(geom='linear',
                                diam=3.63,
                                well_depth=569.002,
                                rot_relax=1.0))

species(name=u'HCN(57)',
        atoms='H:1 C:1 N:1',
        thermo=(NASA([100.00, 953.96],
                     [ 3.35594389E+00,  1.81459686E-03,  6.01050918E-06,
                      -8.44336633E-09,  3.22808347E-12,  1.43403529E+04,
                       4.34116179E+00]),
                NASA([953.96, 5000.00],
                     [ 3.93178551E+00,  2.81623895E-03, -9.36048189E-07,
                       1.65069247E-10, -1.16593760E-14,  1.40750447E+04,
                       7.75478221E-01])),
        transport=gas_transport(geom='linear',
                                diam=3.63,
                                well_depth=569.002,
                                rot_relax=1.0))

species(name=u'HCNH(58)',
        atoms='H:2 C:1 N:1',
        thermo=(NASA([100.00, 958.18],
                     [ 3.91146101E+00, -9.03508609E-04,  1.85395914E-05,
                      -2.16944441E-08,  7.80062300E-12,  3.39049428E+04,
                       4.88428952E+00]),
                NASA([958.18, 5000.00],
                     [ 4.35402158E+00,  4.59158753E-03, -1.55738805E-06,
                       2.85795919E-10, -2.09030645E-14,  3.34830662E+04,
                       1.00921148E+00])),
        transport=gas_transport(geom='nonlinear',
                                diam=4.443,
                                well_depth=110.7))

species(name=u'CH2NH2(59)',
        atoms='H:4 C:1 N:1',
        thermo=(NASA([100.00, 2604.13],
                     [ 3.65406427E+00,  1.13451678E-02, -4.38161288E-06,
                       6.45709985E-10, -2.29059890E-14,  1.64348075E+04,
                       5.49925600E+00]),
                NASA([2604.13, 5000.00],
                     [ 9.55221119E+00,  4.36254280E-03, -1.55596683E-06,
                       2.28618145E-10, -1.22682953E-14,  1.26586230E+04,
                      -2.99532322E+01])),
        transport=gas_transport(geom='nonlinear',
                                diam=4.443,
                                well_depth=110.7))

species(name=u'CH3NH(60)',
        atoms='H:4 C:1 N:1',
        thermo=(NASA([100.00, 1047.35],
                     [ 3.79552289E+00,  2.27254821E-03,  1.82055483E-05,
                      -1.95535360E-08,  6.20576328E-12,  2.00650989E+04,
                       6.67068818E+00]),
                NASA([1047.35, 5000.00],
                     [ 2.96034543E+00,  1.18628915E-02, -4.69646728E-06,
                       8.59120579E-10, -5.94553864E-14,  1.98889824E+04,
                       9.06263303E+00])),
        transport=gas_transport(geom='nonlinear',
                                diam=4.443,
                                well_depth=110.7))

species(name=u'H2CNH(61)',
        atoms='H:3 C:1 N:1',
        thermo=(NASA([100.00, 1033.17],
                     [ 4.09205924E+00, -4.71649747E-03,  2.97524081E-05,
                      -2.89587149E-08,  9.03223202E-12,  9.46372296E+03,
                       4.30887784E+00]),
                NASA([1033.17, 5000.00],
                     [ 2.32336709E+00,  1.04448775E-02, -4.32968042E-06,
                       8.21584657E-10, -5.83885723E-14,  9.38547072E+03,
                       1.07521260E+01])),
        transport=gas_transport(geom='nonlinear',
                                diam=4.443,
                                well_depth=110.7))

species(name=u'HNCO(64)',
        atoms='H:1 C:1 O:1 N:1',
        thermo=(NASA([100.00, 995.33],
                     [ 3.65569778E+00,  5.33520809E-03,  4.76456996E-06,
                      -9.42200947E-09,  3.79359831E-12, -1.54014018E+04,
                       6.14087913E+00]),
                NASA([995.33, 5000.00],
                     [ 5.30106717E+00,  4.13831410E-03, -1.59303290E-06,
                       3.02758167E-10, -2.20424327E-14, -1.59971870E+04,
                      -3.13691356E+00])),
        transport=gas_transport(geom='nonlinear',
                                diam=3.828,
                                well_depth=232.401,
                                rot_relax=1.0))

species(name=u'NCO(66)',
        atoms='C:1 O:1 N:1',
        thermo=(NASA([100.00, 1034.87],
                     [ 3.18934205E+00,  5.04313954E-03,  1.69695638E-06,
                      -5.55922808E-09,  2.32535056E-12,  1.40882121E+04,
                       7.54054566E+00]),
                NASA([1034.87, 5000.00],
                     [ 4.80428875E+00,  2.96043011E-03, -1.31312819E-06,
                       2.63697706E-10, -1.95667000E-14,  1.35312322E+04,
                      -1.38210652E+00])),
        transport=gas_transport(geom='linear',
                                diam=3.828,
                                well_depth=232.401,
                                rot_relax=1.0))

species(name=u'HNC(77)',
        atoms='H:1 C:1 N:1',
        thermo=(NASA([100.00, 1028.00],
                     [ 3.15965098E+00,  7.29665512E-03, -8.43303210E-06,
                       5.39546056E-09, -1.36081822E-12,  2.23897347E+04,
                       4.78183791E+00]),
                NASA([1028.00, 5000.00],
                     [ 4.36679784E+00,  2.30245592E-03, -7.12224345E-07,
                       1.07291304E-10, -6.40972837E-15,  2.21572455E+04,
                      -9.98920862E-01])),
        transport=gas_transport(geom='linear',
                                diam=4.443,
                                well_depth=110.7))

species(name=u'CH3O2(87)',
        atoms='H:3 C:1 O:2',
        thermo=(NASA([100.00, 1031.34],
                     [ 3.58601429E+00,  6.15341873E-03,  1.33271646E-05,
                      -1.76584536E-08,  6.13223531E-12,  2.48233316E+02,
                       9.74093968E+00]),
                NASA([1031.34, 5000.00],
                     [ 4.35019604E+00,  1.07183725E-02, -4.26217645E-06,
                       7.89584357E-10, -5.53851294E-14, -3.09798688E+02,
                       4.08943340E+00])),
        transport=gas_transport(geom='nonlinear',
                                diam=5.391,
                                well_depth=384.897))

species(name=u'H2NO2(88)',
        atoms='H:2 O:2 N:1',
        thermo=(NASA([100.00, 1492.32],
                     [ 3.52871012E+00,  1.13044059E-02, -6.90047002E-06,
                       2.18539910E-09, -3.02436584E-13,  1.76154664E+04,
                       1.00582536E+01]),
                NASA([1492.32, 5000.00],
                     [ 4.80895565E+00,  7.87286063E-03, -3.45127732E-06,
                       6.44540924E-10, -4.43061893E-14,  1.72333578E+04,
                       3.36928111E+00])),
        transport=gas_transport(geom='nonlinear',
                                diam=5.118,
                                well_depth=237.1))

species(name=u'CH5N2(102)',
        atoms='H:5 C:1 N:2',
        thermo=(NASA([100.00, 1003.92],
                     [ 3.07821577E+00,  1.32665684E-02,  1.23831748E-05,
                      -2.62745213E-08,  1.08448371E-11,  2.74416724E+04,
                      -9.12851971E+00]),
                NASA([1003.92, 5000.00],
                     [ 9.11061151E+00,  6.25851159E-03, -2.58681670E-06,
                       5.60831032E-10, -4.48615803E-14,  2.53724039E+04,
                      -4.25284734E+01])),
        transport=gas_transport(geom='nonlinear',
                                diam=5.118,
                                well_depth=237.1))

species(name=u'CH4NO(109)',
        atoms='H:4 C:1 O:1 N:1',
        thermo=(NASA([100.00, 994.47],
                     [ 3.24317960E+00,  1.03987907E-02,  1.20592416E-05,
                      -2.42948030E-08,  1.00629255E-11,  7.45243450E+03,
                      -1.02910570E+01]),
                NASA([994.47, 5000.00],
                     [ 8.59968638E+00,  4.16766576E-03, -1.64088087E-06,
                       3.74206350E-10, -3.13458150E-14,  5.62979962E+03,
                      -3.99107441E+01])),
        transport=gas_transport(geom='nonlinear',
                                diam=5.118,
                                well_depth=237.1))

species(name=u'CH4NO(119)',
        atoms='H:4 C:1 O:1 N:1',
        thermo=(NASA([100.00, 1121.70],
                     [ 2.78277874E+00,  2.25295862E-02, -1.23906005E-05,
                      -1.22682280E-10,  1.46406512E-12,  1.77159209E+04,
                       1.09878283E+01]),
                NASA([1121.70, 5000.00],
                     [ 8.73166456E+00,  8.76509957E-03, -3.94562814E-06,
                       7.78746563E-10, -5.63971067E-14,  1.59127063E+04,
                      -2.04842885E+01])),
        transport=gas_transport(geom='nonlinear',
                                diam=5.118,
                                well_depth=237.1))

species(name=u'CHO2(142)',
        atoms='H:1 C:1 O:2',
        thermo=(NASA([100.00, 1057.62],
                     [ 3.56693714E+00,  7.37391679E-03,  1.23410926E-06,
                      -6.05191233E-09,  2.52686370E-12, -1.66682341E+04,
                       8.24684460E+00]),
                NASA([1057.62, 5000.00],
                     [ 5.51467514E+00,  4.87385278E-03, -2.12203725E-06,
                       4.14215904E-10, -2.99878430E-14, -1.73523980E+04,
                      -2.54569030E+00])),
        transport=gas_transport(geom='nonlinear',
                                diam=5.42,
                                well_depth=411.665))

species(name=u'CHO2(145)',
        atoms='H:1 C:1 O:2',
        thermo=(NASA([100.00, 964.15],
                     [ 3.57768746E+00,  4.99235137E-03,  1.17079849E-05,
                      -1.99877681E-08,  8.20538586E-12, -2.33965404E+04,
                       8.08908291E+00]),
                NASA([964.15, 5000.00],
                     [ 6.82918551E+00,  2.24149744E-03, -7.19457039E-07,
                       1.57564999E-10, -1.36953732E-14, -2.45226527E+04,
                      -1.00672406E+01])),
        transport=gas_transport(geom='nonlinear',
                                diam=5.42,
                                well_depth=411.665))

species(name=u'CH3N2(155)',
        atoms='H:3 C:1 N:2',
        thermo=(NASA([100.00, 866.38],
                     [ 3.05925096E+00,  2.42027056E-02, -3.90896709E-05,
                       3.73353422E-08, -1.36511018E-11,  3.80642380E+04,
                       1.00185025E+00]),
                NASA([866.38, 5000.00],
                     [ 3.65130958E+00,  1.33251067E-02, -6.15673724E-06,
                       1.14424403E-09, -7.71891488E-14,  3.82673064E+04,
                      -5.58553756E-03])),
        transport=gas_transport(geom='nonlinear',
                                diam=5.118,
                                well_depth=237.1))

species(name=u'HN2O(170)',
        atoms='H:1 O:1 N:2',
        thermo=(NASA([100.00, 935.54],
                     [ 4.56732264E+00, -1.67598256E-02,  4.49365769E-05,
                      -4.43740663E-08,  1.52427106E-11,  2.54105469E+04,
                      -7.24633220E+00]),
                NASA([935.54, 5000.00],
                     [ 3.35095470E+00, -3.82703369E-04,  7.58527584E-07,
                      -1.23090043E-10,  5.34592875E-15,  2.51490405E+04,
                      -4.07310125E+00])),
        transport=gas_transport(geom='nonlinear',
                                diam=5.118,
                                well_depth=237.1))

species(name=u'CH2NO(177)',
        atoms='H:2 C:1 O:1 N:1',
        thermo=(NASA([100.00, 980.28],
                     [ 3.41561559E+00,  6.06034542E-03,  2.17491193E-05,
                      -3.32650100E-08,  1.30693147E-11,  1.11847677E+04,
                       9.15596277E+00]),
                NASA([980.28, 5000.00],
                     [ 8.02953158E+00,  4.27989879E-03, -1.61072596E-06,
                       3.60906745E-10, -3.03643015E-14,  9.46114603E+03,
                      -1.71891904E+01])),
        transport=gas_transport(geom='nonlinear',
                                diam=5.118,
                                well_depth=237.1))

#-------------------------------------------------------------------------------
# Reaction data
#-------------------------------------------------------------------------------
#  Reaction index: Chemkin #1; RMG #303
#  Library reaction: Nitrogen_Dean_and_Bozzelli
#  Flux pairs: CH3(17), NC(1); NH2(41), NC(1);

# Reaction 1
pdep_arrhenius('CH3(17) + NH2(41) <=> NC(1)',
               [(0.1, 'atm'), 1.300000e+54, -12.72, 15.607],
               [(1.0, 'atm'), 5.100000e+52, -11.99, 16.79],
               [(10.0, 'atm'), 1.600000e+47, -10.15, 15.687])